# generated using pymatgen
data_Ta
_symmetry_space_group_name_H-M   'P 1'
_cell_length_a   10.24759469
_cell_length_b   10.24759469
_cell_length_c   5.34679541
_cell_angle_alpha   90.00000000
_cell_angle_beta   90.00000000
_cell_angle_gamma   90.00000000
_symmetry_Int_Tables_number   1
_chemical_formula_structural   Ta
_chemical_formula_sum   Ta30
_cell_volume   561.48407934
_cell_formula_units_Z   30
loop_
 _symmetry_equiv_pos_site_id
 _symmetry_equiv_pos_as_xyz
  1  'x, y, z'
loop_
 _atom_site_type_symbol
 _atom_site_label
 _atom_site_symmetry_multiplicity
 _atom_site_fract_x
 _atom_site_fract_y
 _atom_site_fract_z
 _atom_site_occupancy
  Ta  Ta0  1  0.50000000  0.00000000  0.24276588  1
  Ta  Ta1  1  0.00000000  0.50000000  0.75723412  1
  Ta  Ta2  1  0.76132784  0.93262099  0.24333382  1
  Ta  Ta3  1  0.06737901  0.76132784  0.75666618  1
  Ta  Ta4  1  0.93262099  0.23867216  0.75666618  1
  Ta  Ta5  1  0.23867216  0.06737901  0.24333382  1
  Ta  Ta6  1  0.26132784  0.56737901  0.75666618  1
  Ta  Ta7  1  0.73867216  0.43262099  0.75666618  1
  Ta  Ta8  1  0.43262099  0.26132784  0.24333382  1
  Ta  Ta9  1  0.56737901  0.73867216  0.24333382  1
  Ta  Ta10  1  0.03477887  0.87111685  0.25710383  1
  Ta  Ta11  1  0.12888315  0.03477887  0.74289617  1
  Ta  Ta12  1  0.87111685  0.96522113  0.74289617  1
  Ta  Ta13  1  0.96522113  0.12888315  0.25710383  1
  Ta  Ta14  1  0.53477887  0.62888315  0.74289617  1
  Ta  Ta15  1  0.46522113  0.37111685  0.74289617  1
  Ta  Ta16  1  0.37111685  0.53477887  0.25710383  1
  Ta  Ta17  1  0.62888315  0.46522113  0.25710383  1
  Ta  Ta18  1  0.60481656  0.89518344  0.74051431  1
  Ta  Ta19  1  0.10481656  0.60481656  0.25948569  1
  Ta  Ta20  1  0.89518344  0.39518344  0.25948569  1
  Ta  Ta21  1  0.39518344  0.10481656  0.74051431  1
  Ta  Ta22  1  0.81898766  0.68101234  0.00236218  1
  Ta  Ta23  1  0.31898766  0.81898766  0.99763782  1
  Ta  Ta24  1  0.68101234  0.18101234  0.99763782  1
  Ta  Ta25  1  0.18101234  0.31898766  0.00236218  1
  Ta  Ta26  1  0.31871697  0.81871697  0.49927870  1
  Ta  Ta27  1  0.18128303  0.31871697  0.50072130  1
  Ta  Ta28  1  0.81871697  0.68128303  0.50072130  1
  Ta  Ta29  1  0.68128303  0.18128303  0.49927870  1
